{
  "title": "Earth Rise over Artemis 1",
  "story": [
    {
      "type": "paragraph",
      "id": "34c9f597372a3047",
      "text": "Daughter in-law was at the cape to watch the launch. I slept through it but watched from t-15 to t+20 at seven in the morning. Family connection is through Aerojet Rocketdyne who make the main engines. [https://en.wikipedia.org/wiki/Aerojet_Rocketdyne wikipedia]"
    },
    {
      "type": "image",
      "id": "8eaf32d170cf2541",
      "text": "Uploaded image",
      "size": "wide",
      "width": 420,
      "height": 291,
      "url": "/assets/plugins/image/2e05fb571b954e4eb8bcee8da878532e.jpg"
    }
  ],
  "journal": [
    {
      "type": "create",
      "item": {
        "title": "Earth Rise over Artemis 1",
        "story": []
      },
      "date": 1668661409039
    },
    {
      "item": {
        "type": "factory",
        "id": "34c9f597372a3047"
      },
      "id": "34c9f597372a3047",
      "type": "add",
      "date": 1668661417043
    },
    {
      "type": "edit",
      "id": "34c9f597372a3047",
      "item": {
        "type": "paragraph",
        "id": "34c9f597372a3047",
        "text": "Daughter in-law was at the cape to watch the launch. I slept through it but watched from t-15 to t+20 at seven in the morning."
      },
      "date": 1668661539245
    },
    {
      "type": "edit",
      "id": "34c9f597372a3047",
      "item": {
        "type": "paragraph",
        "id": "34c9f597372a3047",
        "text": "Daughter in-law was at the cape to watch the launch. I slept through it but watched from t-15 to t+20 at seven in the morning. Family connection is through "
      },
      "date": 1668661572730
    },
    {
      "type": "edit",
      "id": "34c9f597372a3047",
      "item": {
        "type": "paragraph",
        "id": "34c9f597372a3047",
        "text": "Daughter in-law was at the cape to watch the launch. I slept through it but watched from t-15 to t+20 at seven in the morning. Family connection is through RocketJet AeroDyne who make the main engines. "
      },
      "date": 1668661614738
    },
    {
      "type": "edit",
      "id": "34c9f597372a3047",
      "item": {
        "type": "paragraph",
        "id": "34c9f597372a3047",
        "text": "Daughter in-law was at the cape to watch the launch. I slept through it but watched from t-15 to t+20 at seven in the morning. Family connection is through Aerojet Rocketdyne who make the main engines. "
      },
      "date": 1668661670392
    },
    {
      "type": "edit",
      "id": "34c9f597372a3047",
      "item": {
        "type": "paragraph",
        "id": "34c9f597372a3047",
        "text": "Daughter in-law was at the cape to watch the launch. I slept through it but watched from t-15 to t+20 at seven in the morning. Family connection is through Aerojet Rocketdyne who make the main engines. [https://en.wikipedia.org/wiki/Aerojet_Rocketdyne wikipedia]"
      },
      "date": 1668661695004
    },
    {
      "item": {
        "type": "factory",
        "id": "8eaf32d170cf2541"
      },
      "id": "8eaf32d170cf2541",
      "type": "add",
      "after": "34c9f597372a3047",
      "date": 1668661701077
    },
    {
      "type": "edit",
      "id": "8eaf32d170cf2541",
      "item": {
        "type": "image",
        "id": "8eaf32d170cf2541",
        "text": "Uploaded image",
        "size": "wide",
        "width": 420,
        "height": 291,
        "url": "/assets/plugins/image/2e05fb571b954e4eb8bcee8da878532e.jpg"
      },
      "date": 1668661733828
    },
    {
      "type": "fork",
      "site": "found.ward.fed.wiki",
      "date": 1670933400918
    }
  ]
}